Version 4
SHEET 1 2344 1816
WIRE -480 -272 -592 -272
WIRE -352 -272 -480 -272
WIRE -272 -272 -352 -272
WIRE -96 -272 -176 -272
WIRE 48 -272 -96 -272
WIRE 64 -272 48 -272
WIRE -848 -256 -1232 -256
WIRE -352 -192 -352 -272
WIRE -96 -128 -96 -272
WIRE -848 -112 -848 -256
WIRE -848 -112 -960 -112
WIRE -736 -112 -848 -112
WIRE -224 -112 -224 -208
WIRE -224 -112 -352 -112
WIRE 64 -80 64 -272
WIRE -960 -32 -960 -112
WIRE -736 -32 -736 -112
WIRE 576 -32 528 -32
WIRE -480 -16 -480 -272
WIRE -224 -16 -224 -112
WIRE 736 -16 640 -16
WIRE 576 0 320 0
WIRE 1840 0 1776 0
WIRE 1968 0 1920 0
WIRE 2048 0 1968 0
WIRE 2208 0 2128 0
WIRE -1232 16 -1232 -256
WIRE 736 32 736 -16
WIRE 848 32 736 32
WIRE 1024 32 928 32
WIRE 1056 32 1024 32
WIRE 1248 32 1136 32
WIRE 1776 32 1776 0
WIRE -960 80 -960 32
WIRE -960 80 -1024 80
WIRE -736 80 -736 32
WIRE -592 80 -592 -272
WIRE -592 80 -736 80
WIRE 528 96 528 -32
WIRE 736 96 736 32
WIRE 736 96 608 96
WIRE -1232 128 -1232 16
WIRE -96 160 -96 -64
WIRE 1024 160 1024 32
WIRE 1072 160 1024 160
WIRE 1968 160 1968 0
WIRE 2016 160 1968 160
WIRE -960 176 -960 80
WIRE -736 176 -736 80
WIRE 320 176 320 0
WIRE 1248 176 1248 32
WIRE 1248 176 1136 176
WIRE 1392 176 1248 176
WIRE 1520 176 1472 176
WIRE 1600 176 1520 176
WIRE 1760 176 1680 176
WIRE 1920 176 1760 176
WIRE 2208 176 2208 0
WIRE 2208 176 2080 176
WIRE 2272 176 2208 176
WIRE 1072 192 1024 192
WIRE 1920 192 1920 176
WIRE 2016 192 1920 192
WIRE -848 240 -960 240
WIRE -736 240 -848 240
WIRE 64 240 64 0
WIRE 528 240 528 176
WIRE 1520 272 1520 176
WIRE 1760 272 1760 176
WIRE -1232 304 -1232 208
WIRE -1232 304 -1392 304
WIRE -848 304 -848 240
WIRE -848 304 -1232 304
WIRE 736 320 608 320
WIRE -1392 352 -1392 304
WIRE -1232 384 -1232 304
WIRE 736 384 736 320
WIRE 944 384 736 384
WIRE 1024 384 1024 192
WIRE 1152 384 1024 384
WIRE -480 400 -480 48
WIRE -224 400 -224 48
WIRE 1760 400 1760 336
WIRE 528 448 528 320
WIRE 576 448 528 448
WIRE 736 464 736 384
WIRE 736 464 640 464
WIRE 320 480 320 256
WIRE 576 480 320 480
WIRE 1232 480 1232 384
WIRE -704 512 -848 512
WIRE -656 512 -704 512
WIRE 1520 528 1520 336
WIRE 2208 528 2208 176
WIRE 2208 528 1520 528
WIRE -1232 544 -1232 464
WIRE -1104 544 -1232 544
WIRE 320 560 320 480
WIRE -704 640 -704 512
WIRE 320 672 320 640
WIRE -848 704 -848 512
WIRE -1104 720 -1104 544
WIRE -1104 768 -1104 720
WIRE -1072 768 -1104 768
WIRE -704 768 -704 704
WIRE -704 768 -784 768
WIRE -624 768 -704 768
WIRE -624 896 -624 768
WIRE -544 896 -624 896
WIRE -704 960 -704 768
WIRE -704 960 -784 960
WIRE 288 1296 112 1296
WIRE 576 1296 288 1296
WIRE 752 1312 640 1312
WIRE 112 1328 112 1296
WIRE 576 1328 496 1328
WIRE 496 1424 496 1328
WIRE 576 1424 496 1424
WIRE 752 1424 752 1312
WIRE 752 1424 656 1424
WIRE 496 1440 496 1424
WIRE 496 1536 496 1520
WIRE 496 1552 496 1536
WIRE 496 1696 496 1632
FLAG -1392 352 0
FLAG -544 896 VSN
FLAG 320 672 0
FLAG 608 -48 VSP
FLAG 608 432 VSP
FLAG 608 496 VSN
FLAG 608 16 VSN
FLAG 1104 208 VSN
FLAG 1104 144 VSP
FLAG 1232 480 0
FLAG 1776 32 0
FLAG 2048 208 VSN
FLAG 2048 144 VSP
FLAG 1760 400 0
FLAG 2272 176 Vout
FLAG -656 512 0
FLAG -1104 720 VinLT
FLAG -480 400 0
FLAG -1024 80 0
FLAG -224 400 0
FLAG -96 160 0
FLAG 48 -272 VSP
FLAG -1232 16 Vsursa
FLAG 64 240 0
FLAG 112 1408 0
FLAG 752 1312 Vo
FLAG 496 1776 0
FLAG 1024 1328 Vcc
FLAG 1024 1408 0
FLAG 1216 1408 0
FLAG 1216 1328 Vee
FLAG 608 1280 Vcc
FLAG 608 1344 Vee
FLAG 496 1536 Vin
FLAG 288 1296 Vlimit
SYMBOL voltage 320 160 R0
WINDOW 123 24 44 Left 2
WINDOW 39 0 0 Left 0
WINDOW 3 46 94 Left 2
SYMATTR Value2 AC 1
SYMATTR Value PULSE(0 1m 1m 1n 1n 1.5m 3m)
SYMATTR InstName V1
SYMBOL voltage -1232 112 R0
WINDOW 123 0 0 Left 0
WINDOW 39 0 0 Left 0
SYMATTR InstName V2
SYMATTR Value SINE(0 10 50)
SYMBOL voltage -1232 368 R0
SYMATTR InstName V3
SYMATTR Value 12V
SYMBOL res 304 544 R0
SYMATTR InstName R12
SYMATTR Value 10k
SYMBOL OpAmps\\UniversalOpamp2 608 464 R0
SYMATTR InstName U2
SYMBOL OpAmps\\UniversalOpamp2 608 -16 R0
SYMATTR InstName U1
SYMBOL res 624 80 R90
WINDOW 0 0 56 VBottom 2
WINDOW 3 34 48 VTop 2
SYMATTR InstName R2
SYMATTR Value 24k
SYMBOL res 624 304 R90
WINDOW 0 0 56 VBottom 2
WINDOW 3 32 56 VTop 2
SYMATTR InstName R3
SYMATTR Value 24k
SYMBOL res 944 16 R90
WINDOW 0 0 56 VBottom 2
WINDOW 3 32 56 VTop 2
SYMATTR InstName R4
SYMATTR Value 10k
SYMBOL res 1152 16 R90
WINDOW 0 0 56 VBottom 2
WINDOW 3 32 56 VTop 2
SYMATTR InstName R5
SYMATTR Value 10k
SYMBOL res 1040 368 R90
WINDOW 0 0 56 VBottom 2
WINDOW 3 32 56 VTop 2
SYMATTR InstName R6
SYMATTR Value 10k
SYMBOL OpAmps\\UniversalOpamp2 1104 176 R0
SYMATTR InstName U3
SYMBOL res 1248 368 R90
WINDOW 0 0 56 VBottom 2
WINDOW 3 32 56 VTop 2
SYMATTR InstName R7
SYMATTR Value 10k
SYMBOL res 1488 160 R90
WINDOW 0 0 56 VBottom 2
WINDOW 3 32 56 VTop 2
SYMATTR InstName R8
SYMATTR Value 1.5k
SYMBOL res 1696 160 R90
WINDOW 0 0 56 VBottom 2
WINDOW 3 32 56 VTop 2
SYMATTR InstName R9
SYMATTR Value 1.5k
SYMBOL res 1936 -16 R90
WINDOW 0 0 56 VBottom 2
WINDOW 3 32 56 VTop 2
SYMATTR InstName R10
SYMATTR Value 20k
SYMBOL res 2144 -16 R90
WINDOW 0 0 56 VBottom 2
WINDOW 3 32 56 VTop 2
SYMATTR InstName R11
SYMATTR Value 10k
SYMBOL OpAmps\\UniversalOpamp2 2048 176 R0
SYMATTR InstName U4
SYMBOL cap 1504 272 R0
SYMATTR InstName C1
SYMATTR Value 51n
SYMBOL cap 1744 272 R0
SYMATTR InstName C2
SYMATTR Value 51n
SYMBOL res 512 80 R0
WINDOW 0 -48 42 Left 2
WINDOW 3 -62 74 Left 2
SYMATTR InstName R13
SYMATTR Value 1300
SYMBOL res 512 224 R0
WINDOW 0 -57 39 Left 2
WINDOW 3 -57 77 Left 2
SYMATTR InstName R14
SYMATTR Value 100
SYMBOL PowerProducts\\LT1175-5 -928 864 R0
SYMATTR InstName U5
SYMBOL polcap -720 640 R0
WINDOW 3 24 56 Left 2
SYMATTR Value 15µ
SYMATTR InstName C3
SYMATTR Description Capacitor
SYMATTR Type cap
SYMATTR SpiceLine V=6.3 Irms=0 Rser=2.5 Lser=0 mfg="AVX" pn="TAJB156K004" type="Tantalum"
SYMBOL diode -944 32 R180
WINDOW 0 24 64 Left 2
WINDOW 3 24 0 Left 2
SYMATTR InstName D1
SYMATTR Value MURS120
SYMBOL polcap -496 -16 R0
WINDOW 3 24 56 Left 2
SYMATTR Value 1000µ
SYMATTR InstName C4
SYMATTR Description Capacitor
SYMATTR Type cap
SYMATTR SpiceLine V=25 Irms=175m Rser=0.306 Lser=89.2812n mfg="Würth Elektronik" pn="860020473009 WCAP-ATG5 6,3x11" type="Al electrolytic"
SYMBOL zener -208 48 R180
WINDOW 0 24 64 Left 2
WINDOW 3 24 0 Left 2
SYMATTR InstName D5
SYMATTR Value BZX84B6V2L
SYMATTR Description Diode
SYMATTR Type diode
SYMBOL npn -272 -208 R270
SYMATTR InstName Q1
SYMATTR Value 2N2222
SYMBOL polcap -112 -128 R0
WINDOW 3 24 56 Left 2
SYMATTR Value 100µ
SYMATTR InstName C5
SYMATTR Description Capacitor
SYMATTR Type cap
SYMATTR SpiceLine V=6.3 Irms=0 Rser=0.9 Lser=0 mfg="AVX" pn="TAJD107M006" type="Tantalum"
SYMBOL diode -976 176 R0
WINDOW 3 -28 93 Left 2
SYMATTR Value MURS120
SYMATTR InstName D3
SYMBOL diode -720 240 R180
WINDOW 0 24 64 Left 2
WINDOW 3 -43 -38 Left 2
SYMATTR InstName D4
SYMATTR Value MURS120
SYMBOL diode -752 -32 R0
SYMATTR InstName D2
SYMATTR Value MURS120
SYMBOL res -368 -208 R0
SYMATTR InstName R1
SYMATTR Value 560
SYMBOL res 48 -96 R0
SYMATTR InstName R15
SYMATTR Value 54
SYMBOL OpAmps\\UniversalOpamp2 608 1312 R0
SYMATTR InstName U6
SYMBOL voltage 112 1312 R0
SYMATTR InstName Limit
SYMATTR Value 3V
SYMBOL voltage 496 1536 R0
WINDOW 123 0 0 Left 0
WINDOW 39 0 0 Left 0
SYMATTR InstName Noise
SYMATTR Value SINE(0 10m 10k)
SYMBOL voltage 496 1680 R0
WINDOW 123 0 0 Left 0
WINDOW 39 0 0 Left 0
SYMATTR InstName Source
SYMATTR Value SINE(0 5V 50)
SYMBOL res 480 1424 R0
SYMATTR InstName R16
SYMATTR Value 1k
SYMBOL res 672 1408 R90
WINDOW 0 0 56 VBottom 2
WINDOW 3 32 56 VTop 2
SYMATTR InstName R_Histerezis
SYMATTR Value 10k
SYMBOL voltage 1024 1312 R0
WINDOW 123 0 0 Left 0
WINDOW 39 0 0 Left 0
SYMATTR InstName V4
SYMATTR Value 5V
SYMBOL voltage 1216 1312 R0
SYMATTR InstName V7
SYMATTR Value 0
TEXT -1416 1800 Left 2 !.tran 200m
